# generated using pymatgen
data_Mg17Al12
_symmetry_space_group_name_H-M   'P 1'
_cell_length_a   10.53258400
_cell_length_b   10.53258400
_cell_length_c   10.53258400
_cell_angle_alpha   90.00000000
_cell_angle_beta   90.00000000
_cell_angle_gamma   90.00000000
_symmetry_Int_Tables_number   1
_chemical_formula_structural   Mg17Al12
_chemical_formula_sum   'Mg34 Al24'
_cell_volume   1168.43563668
_cell_formula_units_Z   2
loop_
 _symmetry_equiv_pos_site_id
 _symmetry_equiv_pos_as_xyz
  1  'x, y, z'
loop_
 _atom_site_type_symbol
 _atom_site_label
 _atom_site_symmetry_multiplicity
 _atom_site_fract_x
 _atom_site_fract_y
 _atom_site_fract_z
 _atom_site_occupancy
  Mg  Mg0  1  0.00000000  0.00000000  0.00000000  1
  Mg  Mg1  1  0.67209950  0.32790050  0.32790050  1
  Mg  Mg2  1  0.32790050  0.67209950  0.32790050  1
  Mg  Mg3  1  0.32790050  0.32790050  0.67209950  1
  Mg  Mg4  1  0.17209950  0.17209950  0.17209950  1
  Mg  Mg5  1  0.14334500  0.85665500  0.54034700  1
  Mg  Mg6  1  0.95965300  0.35665500  0.35665500  1
  Mg  Mg7  1  0.14334500  0.54034700  0.85665500  1
  Mg  Mg8  1  0.85665500  0.14334500  0.54034700  1
  Mg  Mg9  1  0.54034700  0.14334500  0.85665500  1
  Mg  Mg10  1  0.35665500  0.95965300  0.35665500  1
  Mg  Mg11  1  0.35665500  0.35665500  0.95965300  1
  Mg  Mg12  1  0.54034700  0.85665500  0.14334500  1
  Mg  Mg13  1  0.85665500  0.54034700  0.14334500  1
  Mg  Mg14  1  0.14334500  0.14334500  0.45965300  1
  Mg  Mg15  1  0.45965300  0.14334500  0.14334500  1
  Mg  Mg16  1  0.14334500  0.45965300  0.14334500  1
  Mg  Mg17  1  0.50000000  0.50000000  0.50000000  1
  Mg  Mg18  1  0.17209950  0.82790050  0.82790050  1
  Mg  Mg19  1  0.82790050  0.17209950  0.82790050  1
  Mg  Mg20  1  0.82790050  0.82790050  0.17209950  1
  Mg  Mg21  1  0.67209950  0.67209950  0.67209950  1
  Mg  Mg22  1  0.64334500  0.35665500  0.04034700  1
  Mg  Mg23  1  0.45965300  0.85665500  0.85665500  1
  Mg  Mg24  1  0.64334500  0.04034700  0.35665500  1
  Mg  Mg25  1  0.35665500  0.64334500  0.04034700  1
  Mg  Mg26  1  0.04034700  0.64334500  0.35665500  1
  Mg  Mg27  1  0.85665500  0.45965300  0.85665500  1
  Mg  Mg28  1  0.85665500  0.85665500  0.45965300  1
  Mg  Mg29  1  0.04034700  0.35665500  0.64334500  1
  Mg  Mg30  1  0.35665500  0.04034700  0.64334500  1
  Mg  Mg31  1  0.64334500  0.64334500  0.95965300  1
  Mg  Mg32  1  0.95965300  0.64334500  0.64334500  1
  Mg  Mg33  1  0.64334500  0.95965300  0.64334500  1
  Al  Al34  1  0.90936850  0.09063150  0.27581350  1
  Al  Al35  1  0.72418650  0.09063150  0.09063150  1
  Al  Al36  1  0.90936850  0.27581350  0.09063150  1
  Al  Al37  1  0.09063150  0.90936850  0.27581350  1
  Al  Al38  1  0.27581350  0.90936850  0.09063150  1
  Al  Al39  1  0.09063150  0.72418650  0.09063150  1
  Al  Al40  1  0.09063150  0.09063150  0.72418650  1
  Al  Al41  1  0.27581350  0.09063150  0.90936850  1
  Al  Al42  1  0.09063150  0.27581350  0.90936850  1
  Al  Al43  1  0.40936850  0.40936850  0.22418650  1
  Al  Al44  1  0.22418650  0.40936850  0.40936850  1
  Al  Al45  1  0.40936850  0.22418650  0.40936850  1
  Al  Al46  1  0.40936850  0.59063150  0.77581350  1
  Al  Al47  1  0.22418650  0.59063150  0.59063150  1
  Al  Al48  1  0.40936850  0.77581350  0.59063150  1
  Al  Al49  1  0.59063150  0.40936850  0.77581350  1
  Al  Al50  1  0.77581350  0.40936850  0.59063150  1
  Al  Al51  1  0.59063150  0.22418650  0.59063150  1
  Al  Al52  1  0.59063150  0.59063150  0.22418650  1
  Al  Al53  1  0.77581350  0.59063150  0.40936850  1
  Al  Al54  1  0.59063150  0.77581350  0.40936850  1
  Al  Al55  1  0.90936850  0.90936850  0.72418650  1
  Al  Al56  1  0.72418650  0.90936850  0.90936850  1
  Al  Al57  1  0.90936850  0.72418650  0.90936850  1
